LTspice 26.0.1 for Windows
Circuit: C:\Users\9108h\Documents\buranyan_dl\461C_FILTER_20260719.net
Start Time: Mon Jul 20 12:11:36 2026
solver = Normal
Maximum thread count: 4
tnom = 27
temp = 27
method = modified trap
Compress1stOrder = true
Compress2ndOrder = true
WARNING: Node n033 is floating.

.OP point found by inspection.
.OP point found by inspection.
Total elapsed time: 0.162 seconds.

Files loaded:
C:\Users\9108h\Documents\buranyan_dl\461C_FILTER_20260719.net

