LTspice 26.0.1 for Windows
Circuit: C:\Users\9108h\Documents\LTspice\MIL-STD-461C_ASC\461C_FILTER.net
Start Time: Tue May  5 16:02:04 2026

.step ry=100
solver = Normal
Maximum thread count: 16
tnom = 27
temp = 27
method = trap
WARNING: Node n026 is floating.

.OP point found by inspection.
.OP point found by inspection.

.step ry=220
.OP point found by inspection.
.OP point found by inspection.

.step ry=330
.OP point found by inspection.
.OP point found by inspection.

.step ry=470
.OP point found by inspection.
.OP point found by inspection.

.step ry=680
.OP point found by inspection.
.OP point found by inspection.
Total elapsed time: 0.332 seconds.

Files loaded:
C:\Users\9108h\Documents\LTspice\MIL-STD-461C_ASC\461C_FILTER.net

