LTspice 26.0.1 for Windows
Circuit: C:\Users\9108h\Documents\LTspice\MIL-STD-461C_ASC\461C_FILTER.net
Start Time: Sun May 31 10:49:38 2026
solver = Normal
Maximum thread count: 4
tnom = 27
temp = 27
method = modified trap
Compress1stOrder = true
Compress2ndOrder = true
WARNING: Node n025 is floating.

.OP point found by inspection.
.OP point found by inspection.
Total elapsed time: 0.144 seconds.

Files loaded:
C:\Users\9108h\Documents\LTspice\MIL-STD-461C_ASC\461C_FILTER.net

