LTspice 26.0.1 for Windows
Circuit: C:\Users\9108h\Documents\GitHub\memo\MIL-STD-461C_ASC\461C_FILTER.net
Start Time: Tue Jun  2 20:20:23 2026
solver = Normal
Maximum thread count: 16
tnom = 27
temp = 27
method = trap
WARNING: Node n025 is floating.

Direct Newton iteration succeeded in finding operating point.
Total elapsed time: 116.047 seconds.

Files loaded:
C:\Users\9108h\Documents\GitHub\memo\MIL-STD-461C_ASC\461C_FILTER.net

